# generated using pymatgen
data_Nd6H7
_symmetry_space_group_name_H-M   Pm
_cell_length_a   5.53417987
_cell_length_b   2.42667577
_cell_length_c   6.93891126
_cell_angle_alpha   90.00000000
_cell_angle_beta   110.59246017
_cell_angle_gamma   90.00000000
_symmetry_Int_Tables_number   6
_chemical_formula_structural   Nd6H7
_chemical_formula_sum   'Nd6 H7'
_cell_volume   87.23310009
_cell_formula_units_Z   1
loop_
 _symmetry_equiv_pos_site_id
 _symmetry_equiv_pos_as_xyz
  1  'x, y, z'
  2  'x, -y, z'
loop_
 _atom_site_type_symbol
 _atom_site_label
 _atom_site_symmetry_multiplicity
 _atom_site_fract_x
 _atom_site_fract_y
 _atom_site_fract_z
 _atom_site_occupancy
  Nd  Nd0  1  0.168406  0.000000  0.949141  1.0
  Nd  Nd1  1  0.180573  0.000000  0.454524  1.0
  Nd  Nd2  1  0.533310  0.000000  0.265156  1.0
  Nd  Nd3  1  0.548251  0.000000  0.774515  1.0
  Nd  Nd4  1  0.858225  0.000000  0.612565  1.0
  Nd  Nd5  1  0.859898  0.000000  0.110878  1.0
  H  H6  1  0.187415  0.500000  0.692667  1.0
  H  H7  1  0.189526  0.500000  0.196776  1.0
  H  H8  1  0.359196  0.500000  0.862633  1.0
  H  H9  1  0.382735  0.500000  0.384444  1.0
  H  H10  1  0.532658  0.500000  0.029564  1.0
  H  H11  1  0.540009  0.500000  0.537548  1.0
  H  H12  1  0.856320  0.500000  0.361281  1.0
